<?xml version="1.0" encoding="UTF-8"?>

<!-- generated on 2025-09-19 17:55:37 by Eclipse SUMO polyconvert Version 1.23.1
<polyconvertConfiguration xmlns:xsi="http://www.w3.org/2001/XMLSchema-instance" xsi:noNamespaceSchemaLocation="http://sumo.dlr.de/xsd/polyconvertConfiguration.xsd">

    <input>
        <net-file value="test.net.xml"/>
        <osm-files value="map.osm"/>
        <type-file value="typemap.xml"/>
    </input>

    <output>
        <output-file value="map.poly.xml"/>
    </output>

    <report>
        <xml-validation value="never"/>
    </report>

</polyconvertConfiguration>
-->

<additional xmlns:xsi="http://www.w3.org/2001/XMLSchema-instance" xsi:noNamespaceSchemaLocation="http://sumo.dlr.de/xsd/additional_file.xsd">
    <location netOffset="-629922.11,-3930125.29" convBoundary="-5.33,-1619.96,1828.28,849.67" origBoundary="-97.567403,35.491585,-97.547144,35.513625" projParameter="+proj=utm +zone=14 +ellps=WGS84 +datum=WGS84 +units=m +no_defs"/>

    <poly id="1060905278" type="parking" color="184,184,179" fill="1" layer="-1.00" shape="91.450320,238.219065 91.240153,248.932849 94.690840,243.691155 91.773267,243.460144 94.769201,238.300592 91.450320,238.219065"/>
    <poly id="1060905279" type="parking" color="184,184,179" fill="1" layer="-1.00" shape="129.682957,239.018979 129.111107,239.043946 126.540442,244.276236 129.089883,244.246742 126.459965,249.810991 129.525386,249.855563 129.682957,239.018979"/>
    <poly id="1060905282" type="parking" color="184,184,179" fill="1" layer="-1.00" shape="84.019980,238.288562 83.439061,238.313400 80.868423,243.545702 83.426771,243.527419 80.787813,249.091549 83.862303,249.136238 84.019980,238.288562"/>
    <poly id="1060905283" type="parking" color="184,184,179" fill="1" layer="-1.00" shape="84.249438,218.134034 83.668517,218.158873 81.098035,223.380083 83.656389,223.361799 81.017426,228.925929 84.091923,228.970618 84.249438,218.134034"/>
    <poly id="1060905284" type="parking" color="184,184,179" fill="1" layer="-1.00" shape="84.633195,199.845548 84.061343,199.870518 81.490695,205.102820 84.040146,205.073312 81.410247,210.637574 84.475681,210.682131 84.633195,199.845548"/>
    <poly id="1060905285" type="parking" color="184,184,179" fill="1" layer="-1.00" shape="85.070401,181.624403 84.489478,181.649241 81.918825,186.881543 84.477351,186.852167 81.838377,192.416297 84.912887,192.460986 85.070401,181.624403"/>
    <poly id="1060905286" type="parking" color="184,184,179" fill="1" layer="-1.00" shape="137.298408,228.091147 115.433579,227.684476 115.391451,229.958141 91.703696,229.525023 91.735782,227.317777 96.125008,227.403769 97.186749,169.341925 85.406277,169.126308 85.318168,173.939838 83.304768,173.910573 83.392715,169.108134 8.610693,167.744129 8.386495,180.055247 10.835061,180.101911 8.189803,185.477371 12.351347,185.626578 8.534210,191.118142 10.789646,198.839070 7.923782,203.789752 11.593318,204.087128 8.570537,209.224128 9.979459,217.143546 6.986147,222.125659 11.182663,222.364126 7.812998,227.651404 10.076503,237.313906 6.755896,242.346734 10.978644,242.652147 7.519743,247.838282 10.150387,255.331688 6.363225,260.635088 11.106136,260.726178 7.805976,266.225252 -4.908983,266.029454 -5.329884,296.254578 10.404445,296.538616 10.697180,280.134794 5.346640,280.034877 5.467785,273.568816 8.378858,273.622200 8.294978,278.147346 116.893581,280.125032 116.983967,275.156217 129.390079,275.380979 129.307428,279.817393 124.292448,279.722285 123.958627,297.689774 128.882904,297.783564 128.852545,299.247536 140.768885,299.465193 141.756343,245.285169 136.986215,245.193615 137.298408,228.091147"/>
    <poly id="1060905414" type="parking" color="184,184,179" fill="1" layer="-1.00" shape="209.019333,228.457624 222.433338,228.619519 222.116737,254.741384 219.976384,254.710240 219.413686,301.485635 208.140132,301.354883 209.019333,228.457624"/>
    <poly id="1060905428" type="parking" color="184,184,179" fill="1" layer="-1.00" shape="223.312577,228.665595 222.786542,254.218616 256.512170,254.920213 282.575054,255.454910 283.028867,229.889739 223.312577,228.665595"/>
    <poly id="1251633789" type="building" color="255,230,230" fill="1" layer="-1.00" shape="183.157317,83.148847 183.402540,71.903059 192.398491,72.100481 202.818350,72.318627 211.641981,72.513562 211.336950,86.620743 202.422638,86.424489 192.066282,86.207266 191.077872,86.181794 183.157317,83.148847"/>
    <poly id="1251633791" type="shop" color="237,199,255" fill="1" layer="-1.00" shape="192.398491,72.100481 192.066282,86.207266 202.422638,86.424489 202.818350,72.318627 192.398491,72.100481"/>
    <poly id="1251633792" type="shop" color="237,199,255" fill="1" layer="-1.00" shape="183.402540,71.903059 183.157317,83.148847 191.077872,86.181794 192.066282,86.207266 192.398491,72.100481 183.402540,71.903059"/>
    <poly id="1251633794" type="building" color="255,230,230" fill="1" layer="-1.00" shape="110.035911,51.743347 109.550405,77.651953 123.933613,77.927627 124.228514,62.011974 124.419321,52.007928 110.035911,51.743347"/>
    <poly id="1251633794#1" type="shop" color="237,199,255" fill="1" layer="-1.00" shape="110.035911,51.743347 109.550405,77.651953 123.933613,77.927627 124.228514,62.011974 124.419321,52.007928 110.035911,51.743347"/>
    <poly id="1251633795" type="building" color="255,230,230" fill="1" layer="-1.00" shape="124.419321,52.007928 130.023946,52.111605 129.547291,78.031435 123.933613,77.927627 124.228514,62.011974 124.419321,52.007928"/>
    <poly id="1251633796" type="building" color="255,230,230" fill="1" layer="-1.00" shape="77.891494,84.502732 77.835770,93.954038 103.006557,94.109123 103.062308,84.657816 77.891494,84.502732"/>
    <poly id="1251633796#1" type="shop" color="237,199,255" fill="1" layer="-1.00" shape="77.891494,84.502732 77.835770,93.954038 103.006557,94.109123 103.062308,84.657816 77.891494,84.502732"/>
    <poly id="133703948" type="commercial" color="209,209,204" fill="1" layer="-3.00" shape="262.848825,78.827927 211.576496,77.638056 211.359389,106.900976 211.086701,144.971756 263.310475,146.830038 264.885679,102.177252 262.636415,97.784555 262.848825,78.827927"/>
    <poly id="133717352" type="landuse" color="194,194,130" fill="1" layer="-3.00" shape="166.890399,45.858160 165.593542,106.335086 211.359389,106.900976 211.576496,77.638056 262.848825,78.827927 262.888119,18.787542 238.722660,18.103038 172.492197,16.218708 171.954769,40.695431 166.890399,45.858160"/>
    <poly id="133718088" type="landuse" color="194,194,130" fill="1" layer="-3.00" shape="165.593542,106.335086 165.987816,135.984090 166.928918,138.638159 168.252996,140.532310 172.711447,143.969744 211.086701,144.971756 211.359389,106.900976 165.593542,106.335086"/>
    <poly id="139886102" type="landuse" color="194,194,130" fill="1" layer="-3.00" shape="144.171824,102.883941 101.876863,103.178715 102.054590,84.088465 145.181129,84.005473 144.171824,102.883941"/>
    <poly id="139886102#1" type="shop" color="237,199,255" fill="1" layer="-1.00" shape="144.171824,102.883941 101.876863,103.178715 102.054590,84.088465 145.181129,84.005473 144.171824,102.883941"/>
    <poly id="187501770" type="building" color="255,230,230" fill="1" layer="-1.00" shape="231.849296,135.111719 255.690815,134.970544 255.326554,93.307111 231.724280,93.207704 231.849296,135.111719"/>
    <poly id="187705649" type="amenity" color="237,199,199" fill="1" layer="-1.00" shape="178.299768,99.663778 190.796498,99.912121 191.077872,86.181794 183.157317,83.148847 178.631978,83.060835 178.299768,99.663778"/>
    <poly id="187705649#1" type="building" color="255,230,230" fill="1" layer="-1.00" shape="178.299768,99.663778 190.796498,99.912121 191.077872,86.181794 183.157317,83.148847 178.631978,83.060835 178.299768,99.663778"/>
    <poly id="250134225" type="amenity" color="237,199,199" fill="1" layer="-1.00" shape="111.433332,206.458894 111.740973,182.178520 121.354819,182.296107 121.038082,206.576349 111.433332,206.458894"/>
    <poly id="250134225#1" type="building" color="255,230,230" fill="1" layer="-1.00" shape="111.433332,206.458894 111.740973,182.178520 121.354819,182.296107 121.038082,206.576349 111.433332,206.458894"/>
    <poly id="250134228" type="landuse" color="194,194,130" fill="1" layer="-3.00" shape="96.515432,226.754896 142.483278,227.733877 143.748589,178.150831 140.119578,173.194494 136.027776,169.496150 134.530770,168.265132 131.932822,167.262174 97.556699,167.605539 96.515432,226.754896"/>
    <poly id="268156888" type="building" color="255,230,230" fill="1" layer="-1.00" shape="107.500699,125.670421 107.801743,107.458391 121.088307,107.662650 120.796305,125.874811 107.500699,125.670421"/>
    <poly id="268156888#1" type="shop" color="237,199,255" fill="1" layer="-1.00" shape="107.500699,125.670421 107.801743,107.458391 121.088307,107.662650 120.796305,125.874811 107.500699,125.670421"/>
    <poly id="317406513" type="amenity" color="237,199,199" fill="1" layer="-1.00" shape="196.133945,131.474651 203.706906,131.584822 203.906516,117.864398 198.365095,117.783781 198.229231,127.122986 196.197681,127.093432 196.133945,131.474651"/>
    <poly id="317406513#1" type="building" color="255,230,230" fill="1" layer="-1.00" shape="196.133945,131.474651 203.706906,131.584822 203.906516,117.864398 198.365095,117.783781 198.229231,127.122986 196.197681,127.093432 196.133945,131.474651"/>
    <poly id="470760180" type="building" color="255,230,230" fill="1" layer="-1.00" shape="202.412769,224.278897 202.604609,216.704458 201.860924,216.693638 202.020423,210.095004 211.741137,210.347372 245.428716,211.181494 253.462856,211.387175 253.305901,217.808342 252.526100,217.785899 252.332281,225.493439 245.014469,225.309278 245.042102,224.033865 205.913947,223.054021 205.885674,224.373800 202.412769,224.278897"/>
    <poly id="470760180#1" type="shop" color="237,199,255" fill="1" layer="-1.00" shape="202.412769,224.278897 202.604609,216.704458 201.860924,216.693638 202.020423,210.095004 211.741137,210.347372 245.428716,211.181494 253.462856,211.387175 253.305901,217.808342 252.526100,217.785899 252.332281,225.493439 245.014469,225.309278 245.042102,224.033865 205.913947,223.054021 205.885674,224.373800 202.412769,224.278897"/>
    <poly id="470760191" type="parking" color="184,184,179" fill="1" layer="-1.00" shape="313.368790,209.563414 313.839594,181.591081 313.510251,179.289818 312.441927,177.277334 310.525792,175.552044 308.054647,173.940709 306.294032,173.371466 302.716957,172.953280 181.217730,170.341970 177.550706,171.741950 172.632053,174.998618 170.771198,177.578651 169.630730,180.524171 168.854819,192.083969 172.720245,202.612966 173.101562,206.956282 313.368790,209.563414"/>
    <poly id="470933430" type="landuse" color="194,194,130" fill="1" layer="-3.00" shape="8.177296,167.604705 8.213825,164.465625 9.753271,163.400773 83.670151,164.375014 83.608888,168.589857 8.177296,167.604705"/>
    <poly id="470933432" type="landuse" color="194,194,130" fill="1" layer="-3.00" shape="119.555702,166.904708 118.367253,166.288351 118.578874,165.459375 119.428131,165.072337 135.323006,164.937346 138.670326,166.184176 137.892234,170.410784 134.963966,167.794387 131.873045,167.006142 119.555702,166.904708"/>
    <poly id="470933434" type="landuse" color="194,194,130" fill="1" layer="-3.00" shape="195.832129,144.738732 172.324240,144.396780 169.306121,142.344861 166.941285,139.658991 165.748624,136.213586 164.980469,130.400232 165.046773,120.227963 172.891826,120.342065 173.033829,125.547235 174.272067,130.224741 183.382505,140.009073 195.832129,144.738732"/>
    <poly id="470933436" type="landuse" color="194,194,130" fill="1" layer="-3.00" shape="228.826575,147.714942 228.864827,145.086211 262.570953,145.909563 262.148006,147.545325 258.417986,149.532339 228.826575,147.714942"/>
    <poly id="471715044" type="unknown" color="51,128,255" fill="1" layer="-1.00" shape="157.623342,548.915801 599.219860,555.971115 837.266437,561.689499 970.981772,565.986444 1070.514306,571.759387 1106.600909,573.452916 1785.326359,848.761448 1822.212578,849.670916 1824.224679,787.595568 1828.278405,578.320013 1780.228332,476.145328 1774.352770,463.655567 1774.555726,207.151212 1379.428055,192.821674 165.802877,167.410813 157.623342,548.915801"/>
    <poly id="723025022" type="parking" color="184,184,179" fill="1" layer="-1.00" shape="184.678139,140.116671 175.123947,130.281508 178.672336,127.060379 178.948417,126.165778 178.643249,125.318192 178.009841,125.209133 173.555949,125.199820 173.702372,122.617038 178.046625,122.680227 178.479019,122.264943 182.021442,119.454208 186.775230,115.684819 187.361678,115.904137 193.601446,115.994906 193.313786,121.426801 187.547891,121.187608 186.531343,121.849558 186.249129,123.165643 186.650188,124.280881 187.542609,125.292326 189.201931,127.213545 193.026247,123.108912 195.104893,125.513275 192.578566,128.316598 190.064315,132.784203 187.689818,136.998679 184.678139,140.116671"/>
    <poly id="978020319" type="amenity" color="237,199,199" fill="1" layer="-1.00" shape="185.904499,182.402803 185.710322,191.386152 207.002907,191.851230 212.025035,197.693200 212.006929,198.314203 211.741137,210.347372 245.428716,211.181494 245.692938,199.259242 245.713953,198.438589 250.902809,192.822861 265.856560,193.151451 266.050817,184.168102 185.904499,182.402803"/>
    <poly id="978020319#1" type="building" color="255,230,230" fill="1" layer="-1.00" shape="185.904499,182.402803 185.710322,191.386152 207.002907,191.851230 212.025035,197.693200 212.006929,198.314203 211.741137,210.347372 245.428716,211.181494 245.692938,199.259242 245.713953,198.438589 250.902809,192.822861 265.856560,193.151451 266.050817,184.168102 185.904499,182.402803"/>
    <poi id="4655107272" type="amenity" color="237,199,199" layer="4.00" x="139.28" y="140.11"/>
    <poi id="8582883677" type="unknown" color="51,128,255" layer="4.00" x="210.50" y="301.76"/>
</additional>
