<?xml version="1.0" encoding="UTF-8"?>

<!-- generated on 2025-09-19 17:55:34 by Eclipse SUMO netconvert Version 1.23.1
<netconvertConfiguration xmlns:xsi="http://www.w3.org/2001/XMLSchema-instance" xsi:noNamespaceSchemaLocation="http://sumo.dlr.de/xsd/netconvertConfiguration.xsd">

    <input>
        <type-files value="osmNetconvert.typ.xml"/>
        <osm-files value="map.osm"/>
    </input>

    <output>
        <output-file value="test.net.xml"/>
    </output>

    <projection>
        <proj.utm value="true"/>
    </projection>

    <report>
        <xml-validation value="never"/>
    </report>

</netconvertConfiguration>
-->

<net version="1.20" junctionCornerDetail="5" limitTurnSpeed="5.50" xmlns:xsi="http://www.w3.org/2001/XMLSchema-instance" xsi:noNamespaceSchemaLocation="http://sumo.dlr.de/xsd/net_file.xsd">

    <location netOffset="-629922.11,-3930125.29" convBoundary="0.00,0.00,309.82,312.31" origBoundary="-97.567351,35.506186,-97.563947,35.508985" projParameter="+proj=utm +zone=14 +ellps=WGS84 +datum=WGS84 +units=m +no_defs"/>

    <type id="highway.footway" priority="1" numLanes="1" speed="2.78" allow="pedestrian" oneway="1" width="2.00"/>
    <type id="highway.secondary" priority="11" numLanes="1" speed="27.78" disallow="tram rail_urban rail rail_electric rail_fast ship container cable_car subway aircraft wheelchair scooter drone" oneway="0"/>
    <type id="highway.service" priority="1" numLanes="1" speed="5.56" allow="pedestrian delivery bicycle" oneway="0"/>
    <type id="highway.tertiary" priority="10" numLanes="1" speed="22.22" disallow="tram rail_urban rail rail_electric rail_fast ship container cable_car subway aircraft wheelchair scooter drone" oneway="0"/>

    <edge id=":12876372946_0" function="internal">
        <lane id=":12876372946_0_0" index="0" allow="pedestrian delivery bicycle" speed="5.56" length="3.28" shape="145.78,111.00 142.50,111.00"/>
    </edge>
    <edge id=":12876372946_1" function="internal">
        <lane id=":12876372946_1_0" index="0" allow="pedestrian delivery bicycle" speed="3.65" length="1.44" shape="145.78,111.00 144.58,110.20"/>
    </edge>
    <edge id=":12876372946_4" function="internal">
        <lane id=":12876372946_4_0" index="0" allow="pedestrian delivery bicycle" speed="3.65" length="3.23" shape="144.58,110.20 144.18,109.40 144.58,108.60 145.78,107.80"/>
    </edge>
    <edge id=":12876372946_2" function="internal">
        <lane id=":12876372946_2_0" index="0" allow="pedestrian delivery bicycle" speed="5.56" length="3.28" shape="142.50,107.80 145.78,107.80"/>
    </edge>
    <edge id=":12876372946_3" function="internal">
        <lane id=":12876372946_3_0" index="0" allow="pedestrian delivery bicycle" speed="3.65" length="1.44" shape="142.50,107.80 143.70,108.60"/>
    </edge>
    <edge id=":12876372946_5" function="internal">
        <lane id=":12876372946_5_0" index="0" allow="pedestrian delivery bicycle" speed="3.65" length="3.23" shape="143.70,108.60 144.10,109.40 143.70,110.20 142.50,111.00"/>
    </edge>
    <edge id=":12876372956_0" function="internal">
        <lane id=":12876372956_0_0" index="0" allow="pedestrian delivery bicycle" speed="5.56" length="3.24" shape="165.68,102.84 162.44,102.81"/>
    </edge>
    <edge id=":12876372956_1" function="internal">
        <lane id=":12876372956_1_0" index="0" allow="pedestrian delivery bicycle" speed="3.65" length="1.44" shape="165.68,102.84 164.49,102.03"/>
    </edge>
    <edge id=":12876372956_4" function="internal">
        <lane id=":12876372956_4_0" index="0" allow="pedestrian delivery bicycle" speed="3.65" length="3.23" shape="164.49,102.03 164.10,101.23 164.51,100.43 165.72,99.64"/>
    </edge>
    <edge id=":12876372956_2" function="internal">
        <lane id=":12876372956_2_0" index="0" allow="pedestrian delivery bicycle" speed="5.56" length="3.24" shape="162.47,99.61 165.72,99.64"/>
    </edge>
    <edge id=":12876372956_3" function="internal">
        <lane id=":12876372956_3_0" index="0" allow="pedestrian delivery bicycle" speed="3.65" length="1.44" shape="162.47,99.61 163.67,100.42"/>
    </edge>
    <edge id=":12876372956_5" function="internal">
        <lane id=":12876372956_5_0" index="0" allow="pedestrian delivery bicycle" speed="3.65" length="3.23" shape="163.67,100.42 164.06,101.23 163.65,102.02 162.44,102.81"/>
    </edge>
    <edge id=":12876372957_0" function="internal">
        <lane id=":12876372957_0_0" index="0" allow="pedestrian delivery bicycle" speed="5.56" length="2.39" shape="166.32,116.80 163.93,116.80"/>
    </edge>
    <edge id=":12876372957_1" function="internal">
        <lane id=":12876372957_1_0" index="0" allow="pedestrian delivery bicycle" speed="3.65" length="1.44" shape="166.32,116.80 165.12,116.00"/>
    </edge>
    <edge id=":12876372957_4" function="internal">
        <lane id=":12876372957_4_0" index="0" allow="pedestrian delivery bicycle" speed="3.65" length="3.23" shape="165.12,116.00 164.72,115.20 165.12,114.40 166.32,113.60"/>
    </edge>
    <edge id=":12876372957_2" function="internal">
        <lane id=":12876372957_2_0" index="0" allow="pedestrian delivery bicycle" speed="5.56" length="2.39" shape="163.93,113.60 166.32,113.60"/>
    </edge>
    <edge id=":12876372957_3" function="internal">
        <lane id=":12876372957_3_0" index="0" allow="pedestrian delivery bicycle" speed="3.65" length="1.44" shape="163.93,113.60 165.13,114.40"/>
    </edge>
    <edge id=":12876372957_5" function="internal">
        <lane id=":12876372957_5_0" index="0" allow="pedestrian delivery bicycle" speed="3.65" length="3.23" shape="165.13,114.40 165.53,115.20 165.13,116.00 163.93,116.80"/>
    </edge>
    <edge id=":12876418393_0" function="internal">
        <lane id=":12876418393_0_0" index="0" allow="pedestrian delivery bicycle" speed="3.65" length="4.67" shape="103.17,52.24 103.98,51.04 104.79,50.65 105.58,51.06 106.37,52.26"/>
    </edge>
    <edge id=":12876418395_0" function="internal">
        <lane id=":12876418395_0_0" index="0" disallow="tram rail_urban rail rail_electric rail_fast ship container cable_car subway aircraft wheelchair scooter drone" speed="17.88" length="4.88" shape="160.31,79.96 160.24,84.83"/>
        <lane id=":12876418395_0_1" index="1" disallow="tram rail_urban rail rail_electric rail_fast ship container cable_car subway aircraft wheelchair scooter drone" speed="17.88" length="4.88" shape="157.11,79.91 157.04,84.79"/>
    </edge>
    <edge id=":12876418395_2" function="internal">
        <lane id=":12876418395_2_0" index="0" allow="pedestrian delivery bicycle" speed="7.93" length="1.54" shape="157.11,79.91 156.29,81.22"/>
    </edge>
    <edge id=":12876418395_10" function="internal">
        <lane id=":12876418395_10_0" index="0" allow="pedestrian delivery bicycle" speed="7.93" length="12.17" shape="156.29,81.22 153.89,82.15 149.91,82.71 144.34,82.90"/>
    </edge>
    <edge id=":12876418395_3" function="internal">
        <lane id=":12876418395_3_0" index="0" allow="pedestrian delivery bicycle" speed="4.35" length="3.41" shape="144.34,79.70 145.26,79.85 146.30,80.10 147.15,80.16 147.51,79.74"/>
    </edge>
    <edge id=":12876418395_4" function="internal">
        <lane id=":12876418395_4_0" index="0" allow="pedestrian delivery bicycle" speed="8.14" length="14.89" shape="144.34,79.70 149.92,80.02 153.90,80.97 156.27,82.56 157.04,84.79"/>
    </edge>
    <edge id=":12876418395_5" function="internal">
        <lane id=":12876418395_5_0" index="0" allow="pedestrian delivery bicycle" speed="3.65" length="4.67" shape="144.34,79.70 145.54,80.50 145.94,81.30 145.54,82.10 144.34,82.90"/>
    </edge>
    <edge id=":12876418395_6" function="internal">
        <lane id=":12876418395_6_0" index="0" allow="pedestrian delivery bicycle" speed="4.57" length="3.98" shape="147.44,84.65 147.25,83.88 146.68,83.34 145.70,83.01 144.34,82.90"/>
    </edge>
    <edge id=":12876418395_7" function="internal">
        <lane id=":12876418395_7_0" index="0" disallow="tram rail_urban rail rail_electric rail_fast ship container cable_car subway aircraft wheelchair scooter drone" speed="17.88" length="4.90" shape="147.44,84.65 147.51,79.74"/>
        <lane id=":12876418395_7_1" index="1" disallow="tram rail_urban rail rail_electric rail_fast ship container cable_car subway aircraft wheelchair scooter drone" speed="17.88" length="4.90" shape="150.64,84.70 150.71,79.80"/>
        <lane id=":12876418395_7_2" index="2" disallow="tram rail_urban rail rail_electric rail_fast ship container cable_car subway aircraft wheelchair scooter drone" speed="17.88" length="4.90" shape="153.84,84.74 153.91,79.85"/>
    </edge>
    <edge id=":12876418408_0" function="internal">
        <lane id=":12876418408_0_0" index="0" allow="pedestrian delivery bicycle" speed="5.56" length="2.53" shape="110.20,143.58 110.13,146.11"/>
    </edge>
    <edge id=":12876418408_1" function="internal">
        <lane id=":12876418408_1_0" index="0" allow="pedestrian delivery bicycle" speed="3.65" length="1.44" shape="110.20,143.58 109.36,144.76"/>
    </edge>
    <edge id=":12876418408_4" function="internal">
        <lane id=":12876418408_4_0" index="0" allow="pedestrian delivery bicycle" speed="3.65" length="3.23" shape="109.36,144.76 108.55,145.14 107.77,144.72 107.00,143.50"/>
    </edge>
    <edge id=":12876418408_2" function="internal">
        <lane id=":12876418408_2_0" index="0" allow="pedestrian delivery bicycle" speed="5.56" length="2.52" shape="106.93,146.02 107.00,143.50"/>
    </edge>
    <edge id=":12876418408_3" function="internal">
        <lane id=":12876418408_3_0" index="0" allow="pedestrian delivery bicycle" speed="3.65" length="1.44" shape="106.93,146.02 107.76,144.84"/>
    </edge>
    <edge id=":12876418408_5" function="internal">
        <lane id=":12876418408_5_0" index="0" allow="pedestrian delivery bicycle" speed="3.65" length="3.23" shape="107.76,144.84 108.57,144.46 109.36,144.89 110.13,146.11"/>
    </edge>
    <edge id=":1470844097_0" function="internal">
        <lane id=":1470844097_0_0" index="0" disallow="tram rail_urban rail rail_electric rail_fast ship container cable_car subway aircraft wheelchair scooter drone" speed="6.92" length="10.37" shape="166.50,163.81 163.33,164.10 161.06,165.11 159.67,166.84 159.18,169.28"/>
    </edge>
    <edge id=":1470844097_1" function="internal">
        <lane id=":1470844097_1_0" index="0" disallow="tram rail_urban rail rail_electric rail_fast ship container cable_car subway aircraft wheelchair scooter drone" speed="13.41" length="24.91" shape="166.50,163.81 158.82,163.18 153.29,162.00 148.22,160.84 141.90,160.29"/>
        <lane id=":1470844097_1_1" index="1" disallow="tram rail_urban rail rail_electric rail_fast ship container cable_car subway aircraft wheelchair scooter drone" speed="13.41" length="24.91" shape="166.55,160.61 158.87,159.98 153.33,158.80 148.25,157.64 141.93,157.09"/>
    </edge>
    <edge id=":1470844097_3" function="internal">
        <lane id=":1470844097_3_0" index="0" disallow="tram rail_urban rail rail_electric rail_fast ship container cable_car subway aircraft wheelchair scooter drone" speed="10.03" length="22.85" shape="166.61,157.41 160.66,156.39 156.45,153.55 153.97,148.92 153.23,142.47"/>
    </edge>
    <edge id=":1470844097_4" function="internal">
        <lane id=":1470844097_4_0" index="0" disallow="tram rail_urban rail rail_electric rail_fast ship container cable_car subway aircraft wheelchair scooter drone" speed="3.65" length="4.67" shape="166.61,157.41 165.42,156.59 165.04,155.78 165.45,154.99 166.67,154.21"/>
    </edge>
    <edge id=":1470844097_5" function="internal">
        <lane id=":1470844097_5_0" index="0" disallow="tram rail_urban rail rail_electric rail_fast ship container cable_car subway aircraft wheelchair scooter drone" speed="6.87" length="10.19" shape="162.83,142.64 163.02,146.27 163.73,148.88 164.97,150.46 166.72,151.01"/>
    </edge>
    <edge id=":1470844097_6" function="internal">
        <lane id=":1470844097_6_0" index="0" disallow="tram rail_urban rail rail_electric rail_fast ship container cable_car subway aircraft wheelchair scooter drone" speed="17.88" length="26.94" shape="162.83,142.64 162.18,151.07 160.98,157.25 159.79,162.79 159.18,169.28"/>
        <lane id=":1470844097_6_1" index="1" disallow="tram rail_urban rail rail_electric rail_fast ship container cable_car subway aircraft wheelchair scooter drone" speed="17.88" length="26.94" shape="159.63,142.58 158.98,151.01 157.78,157.20 156.59,162.74 155.98,169.23"/>
    </edge>
    <edge id=":1470844097_8" function="internal">
        <lane id=":1470844097_8_0" index="0" disallow="tram rail_urban rail rail_electric rail_fast ship container cable_car subway aircraft wheelchair scooter drone" speed="10.16" length="7.04" shape="156.43,142.53 155.43,148.94 155.15,149.41"/>
    </edge>
    <edge id=":1470844097_9" function="internal">
        <lane id=":1470844097_9_0" index="0" disallow="tram rail_urban rail rail_electric rail_fast ship container cable_car subway aircraft wheelchair scooter drone" speed="3.65" length="1.44" shape="156.43,142.53 155.61,143.71"/>
    </edge>
    <edge id=":1470844097_20" function="internal">
        <lane id=":1470844097_20_0" index="0" disallow="tram rail_urban rail rail_electric rail_fast ship container cable_car subway aircraft wheelchair scooter drone" speed="10.16" length="16.35" shape="155.15,149.41 152.68,153.51 148.18,156.22 141.93,157.09"/>
    </edge>
    <edge id=":1470844097_21" function="internal">
        <lane id=":1470844097_21_0" index="0" disallow="tram rail_urban rail rail_electric rail_fast ship container cable_car subway aircraft wheelchair scooter drone" speed="3.65" length="3.23" shape="155.61,143.71 154.80,144.10 154.01,143.69 153.23,142.47"/>
    </edge>
    <edge id=":1470844097_10" function="internal">
        <lane id=":1470844097_10_0" index="0" disallow="tram rail_urban rail rail_electric rail_fast ship container cable_car subway aircraft wheelchair scooter drone" speed="7.03" length="10.66" shape="142.01,147.49 145.49,147.20 147.98,146.25 149.49,144.66 150.03,142.42"/>
    </edge>
    <edge id=":1470844097_11" function="internal">
        <lane id=":1470844097_11_0" index="0" disallow="tram rail_urban rail rail_electric rail_fast ship container cable_car subway aircraft wheelchair scooter drone" speed="13.41" length="25.00" shape="142.01,147.49 149.73,148.06 155.30,149.22 160.40,150.40 166.72,151.01"/>
        <lane id=":1470844097_11_1" index="1" disallow="tram rail_urban rail rail_electric rail_fast ship container cable_car subway aircraft wheelchair scooter drone" speed="13.41" length="25.00" shape="141.98,150.69 149.69,151.26 155.25,152.42 160.35,153.60 166.67,154.21"/>
    </edge>
    <edge id=":1470844097_13" function="internal">
        <lane id=":1470844097_13_0" index="0" disallow="tram rail_urban rail rail_electric rail_fast ship container cable_car subway aircraft wheelchair scooter drone" speed="10.18" length="23.74" shape="141.96,153.89 148.19,154.89 152.60,157.78 155.20,162.56 155.98,169.23"/>
    </edge>
    <edge id=":1470844097_14" function="internal">
        <lane id=":1470844097_14_0" index="0" disallow="tram rail_urban rail rail_electric rail_fast ship container cable_car subway aircraft wheelchair scooter drone" speed="3.65" length="4.67" shape="141.96,153.89 143.15,154.70 143.54,155.50 143.14,156.30 141.93,157.09"/>
    </edge>
    <edge id=":1470844097_15" function="internal">
        <lane id=":1470844097_15_0" index="0" disallow="tram rail_urban rail rail_electric rail_fast ship container cable_car subway aircraft wheelchair scooter drone" speed="7.08" length="10.96" shape="146.38,169.07 146.16,165.24 145.33,162.50 143.92,160.85 141.90,160.29"/>
    </edge>
    <edge id=":1470844097_16" function="internal">
        <lane id=":1470844097_16_0" index="0" disallow="tram rail_urban rail rail_electric rail_fast ship container cable_car subway aircraft wheelchair scooter drone" speed="17.88" length="26.94" shape="146.38,169.07 147.02,160.64 148.23,154.45 149.42,148.91 150.03,142.42"/>
        <lane id=":1470844097_16_1" index="1" disallow="tram rail_urban rail rail_electric rail_fast ship container cable_car subway aircraft wheelchair scooter drone" speed="17.88" length="26.94" shape="149.58,169.12 150.22,160.69 151.43,154.51 152.62,148.97 153.23,142.47"/>
    </edge>
    <edge id=":1470844097_18" function="internal">
        <lane id=":1470844097_18_0" index="0" disallow="tram rail_urban rail rail_electric rail_fast ship container cable_car subway aircraft wheelchair scooter drone" speed="10.10" length="7.61" shape="152.78,169.18 153.74,162.54 154.18,161.75"/>
    </edge>
    <edge id=":1470844097_19" function="internal">
        <lane id=":1470844097_19_0" index="0" disallow="tram rail_urban rail rail_electric rail_fast ship container cable_car subway aircraft wheelchair scooter drone" speed="3.65" length="1.44" shape="152.78,169.18 153.60,167.99"/>
    </edge>
    <edge id=":1470844097_22" function="internal">
        <lane id=":1470844097_22_0" index="0" disallow="tram rail_urban rail rail_electric rail_fast ship container cable_car subway aircraft wheelchair scooter drone" speed="10.10" length="15.66" shape="154.18,161.75 156.38,157.83 160.69,155.05 166.67,154.21"/>
    </edge>
    <edge id=":1470844097_23" function="internal">
        <lane id=":1470844097_23_0" index="0" disallow="tram rail_urban rail rail_electric rail_fast ship container cable_car subway aircraft wheelchair scooter drone" speed="3.65" length="3.23" shape="153.60,167.99 154.41,167.60 155.20,168.02 155.98,169.23"/>
    </edge>
    <edge id=":1470844155_0" function="internal">
        <lane id=":1470844155_0_0" index="0" disallow="tram rail_urban rail rail_electric rail_fast ship container cable_car subway aircraft wheelchair scooter drone" speed="3.65" length="4.67" shape="18.60,157.53 17.39,156.73 16.99,155.94 17.38,155.13 18.58,154.33"/>
    </edge>
    <edge id=":1470844165_0" function="internal">
        <lane id=":1470844165_0_0" index="0" disallow="tram rail_urban rail rail_electric rail_fast ship container cable_car subway aircraft wheelchair scooter drone" speed="3.65" length="4.67" shape="269.29,156.97 270.47,157.81 270.84,158.62 270.42,159.41 269.20,160.17"/>
    </edge>
    <edge id=":147498853_0" function="internal">
        <lane id=":147498853_0_0" index="0" allow="pedestrian delivery bicycle" speed="3.65" length="4.67" shape="271.89,108.95 272.23,110.35 271.99,111.21 271.15,111.53 269.73,111.30"/>
    </edge>
    <edge id=":1532850078_0" function="internal">
        <lane id=":1532850078_0_0" index="0" disallow="tram rail_urban rail rail_electric rail_fast ship container cable_car subway aircraft wheelchair scooter drone" speed="17.88" length="7.43" shape="160.16,105.44 160.65,107.57 161.74,108.87 162.83,110.17 163.30,112.31"/>
        <lane id=":1532850078_0_1" index="1" disallow="tram rail_urban rail rail_electric rail_fast ship container cable_car subway aircraft wheelchair scooter drone" speed="17.88" length="7.43" shape="156.96,105.42 157.45,107.55 158.54,108.84 159.63,110.13 160.10,112.26"/>
        <lane id=":1532850078_0_2" index="2" disallow="tram rail_urban rail rail_electric rail_fast ship container cable_car subway aircraft wheelchair scooter drone" speed="17.88" length="7.43" shape="156.96,105.42 156.90,112.20"/>
    </edge>
    <edge id=":1532850078_3" function="internal">
        <lane id=":1532850078_3_0" index="0" allow="pedestrian delivery bicycle" speed="7.87" length="2.44" shape="156.96,105.42 156.29,107.77"/>
    </edge>
    <edge id=":1532850078_11" function="internal">
        <lane id=":1532850078_11_0" index="0" allow="pedestrian delivery bicycle" speed="7.87" length="11.20" shape="156.29,107.77 156.26,107.87 154.20,109.61 150.77,110.66 145.98,111.01"/>
    </edge>
    <edge id=":1532850078_4" function="internal">
        <lane id=":1532850078_4_0" index="0" allow="pedestrian delivery bicycle" speed="4.19" length="3.12" shape="145.98,107.81 146.58,107.65 147.01,107.20 147.27,106.44 147.36,105.38"/>
    </edge>
    <edge id=":1532850078_5" function="internal">
        <lane id=":1532850078_5_0" index="0" allow="pedestrian delivery bicycle" speed="8.37" length="15.82" shape="145.98,107.81 152.18,108.09 156.60,108.92 159.24,110.31 160.10,112.26"/>
        <lane id=":1532850078_5_1" index="1" allow="pedestrian delivery bicycle" speed="7.59" length="12.82" shape="145.98,107.81 150.78,108.08 154.20,108.91 156.24,110.28 156.90,112.20"/>
    </edge>
    <edge id=":1532850078_7" function="internal">
        <lane id=":1532850078_7_0" index="0" allow="pedestrian delivery bicycle" speed="3.65" length="4.67" shape="145.98,107.81 147.18,108.61 147.58,109.41 147.18,110.21 145.98,111.01"/>
    </edge>
    <edge id=":1532850078_8" function="internal">
        <lane id=":1532850078_8_0" index="0" allow="pedestrian delivery bicycle" speed="4.97" length="4.88" shape="150.50,112.10 150.22,111.62 149.38,111.28 147.96,111.07 145.98,111.01"/>
    </edge>
    <edge id=":1532850078_9" function="internal">
        <lane id=":1532850078_9_0" index="0" disallow="tram rail_urban rail rail_electric rail_fast ship container cable_car subway aircraft wheelchair scooter drone" speed="17.88" length="6.73" shape="150.50,112.10 150.56,105.39"/>
        <lane id=":1532850078_9_1" index="1" disallow="tram rail_urban rail rail_electric rail_fast ship container cable_car subway aircraft wheelchair scooter drone" speed="17.88" length="6.73" shape="153.70,112.15 153.76,105.41"/>
    </edge>
    <edge id=":4649494098_0" function="internal">
        <lane id=":4649494098_0_0" index="0" allow="pedestrian delivery bicycle" speed="5.56" length="9.40" shape="92.34,173.37 92.08,182.76"/>
    </edge>
    <edge id=":4649494098_1" function="internal">
        <lane id=":4649494098_1_0" index="0" allow="pedestrian delivery bicycle" speed="5.56" length="10.16" shape="92.34,173.37 91.87,176.10 90.63,178.03 88.63,179.17 85.85,179.51"/>
    </edge>
    <edge id=":4649494098_2" function="internal">
        <lane id=":4649494098_2_0" index="0" allow="pedestrian delivery bicycle" speed="3.65" length="4.67" shape="92.34,173.37 91.50,174.55 90.69,174.93 89.90,174.50 89.14,173.28"/>
    </edge>
    <edge id=":4649494098_3" function="internal">
        <lane id=":4649494098_3_0" index="0" allow="pedestrian delivery bicycle" speed="5.07" length="5.03" shape="85.91,176.31 87.29,176.14 88.29,175.58 88.90,174.63 89.14,173.28"/>
    </edge>
    <edge id=":4649494098_4" function="internal">
        <lane id=":4649494098_4_0" index="0" allow="pedestrian delivery bicycle" speed="5.56" length="10.20" shape="85.91,176.31 88.67,176.76 90.62,177.98 91.76,179.98 92.08,182.76"/>
    </edge>
    <edge id=":4649494098_5" function="internal">
        <lane id=":4649494098_5_0" index="0" allow="pedestrian delivery bicycle" speed="3.65" length="4.67" shape="85.91,176.31 87.10,177.13 87.48,177.94 87.07,178.73 85.85,179.51"/>
    </edge>
    <edge id=":4649494098_6" function="internal">
        <lane id=":4649494098_6_0" index="0" allow="pedestrian delivery bicycle" speed="5.03" length="5.01" shape="88.89,182.68 88.73,181.31 88.17,180.33 87.21,179.73 85.85,179.51"/>
    </edge>
    <edge id=":4649494098_7" function="internal">
        <lane id=":4649494098_7_0" index="0" allow="pedestrian delivery bicycle" speed="5.56" length="9.40" shape="88.89,182.68 89.14,173.28"/>
    </edge>
    <edge id=":4649494098_8" function="internal">
        <lane id=":4649494098_8_0" index="0" allow="pedestrian delivery bicycle" speed="3.65" length="4.67" shape="88.89,182.68 89.72,181.50 90.53,181.12 91.32,181.54 92.08,182.76"/>
    </edge>
    <edge id=":4649494099_0" function="internal">
        <lane id=":4649494099_0_0" index="0" allow="pedestrian delivery bicycle" speed="5.03" length="5.01" shape="5.87,178.08 4.51,178.25 3.53,178.82 2.93,179.78 2.72,181.13"/>
    </edge>
    <edge id=":4649494099_1" function="internal">
        <lane id=":4649494099_1_0" index="0" allow="pedestrian delivery bicycle" speed="5.56" length="10.16" shape="5.87,178.08 3.11,177.64 1.16,176.43 -0.00,174.45 -0.36,171.69"/>
    </edge>
    <edge id=":4649494099_2" function="internal">
        <lane id=":4649494099_2_0" index="0" allow="pedestrian delivery bicycle" speed="3.65" length="4.67" shape="5.87,178.08 4.68,177.26 4.30,176.45 4.71,175.66 5.93,174.88"/>
    </edge>
    <edge id=":4649494099_3" function="internal">
        <lane id=":4649494099_3_0" index="0" allow="pedestrian delivery bicycle" speed="5.06" length="5.02" shape="2.84,171.73 3.02,173.09 3.59,174.07 4.56,174.66 5.93,174.88"/>
    </edge>
    <edge id=":4649494099_4" function="internal">
        <lane id=":4649494099_4_0" index="0" allow="pedestrian delivery bicycle" speed="5.56" length="9.40" shape="2.84,171.73 2.72,181.13"/>
    </edge>
    <edge id=":4649494099_5" function="internal">
        <lane id=":4649494099_5_0" index="0" allow="pedestrian delivery bicycle" speed="3.65" length="4.67" shape="2.84,171.73 2.02,172.92 1.22,173.31 0.42,172.90 -0.36,171.69"/>
    </edge>
    <edge id=":4649494099_6" function="internal">
        <lane id=":4649494099_6_0" index="0" allow="pedestrian delivery bicycle" speed="5.56" length="9.40" shape="-0.48,181.09 -0.36,171.69"/>
    </edge>
    <edge id=":4649494099_7" function="internal">
        <lane id=":4649494099_7_0" index="0" allow="pedestrian delivery bicycle" speed="5.56" length="10.19" shape="-0.48,181.09 -0.05,178.33 1.16,176.38 3.15,175.23 5.93,174.88"/>
    </edge>
    <edge id=":4649494099_8" function="internal">
        <lane id=":4649494099_8_0" index="0" allow="pedestrian delivery bicycle" speed="3.65" length="4.67" shape="-0.48,181.09 0.34,179.90 1.14,179.51 1.94,179.92 2.72,181.13"/>
    </edge>
    <edge id=":4649494100_0" function="internal">
        <lane id=":4649494100_0_0" index="0" allow="pedestrian delivery bicycle" speed="5.04" length="5.00" shape="5.63,196.59 4.27,196.76 3.30,197.33 2.70,198.29 2.49,199.65"/>
    </edge>
    <edge id=":4649494100_1" function="internal">
        <lane id=":4649494100_1_0" index="0" allow="pedestrian delivery bicycle" speed="5.56" length="10.16" shape="5.63,196.59 2.88,196.16 0.92,194.95 -0.23,192.96 -0.59,190.21"/>
    </edge>
    <edge id=":4649494100_2" function="internal">
        <lane id=":4649494100_2_0" index="0" allow="pedestrian delivery bicycle" speed="3.65" length="4.67" shape="5.63,196.59 4.45,195.77 4.06,194.97 4.47,194.17 5.68,193.39"/>
    </edge>
    <edge id=":4649494100_3" function="internal">
        <lane id=":4649494100_3_0" index="0" allow="pedestrian delivery bicycle" speed="5.05" length="5.01" shape="2.61,190.25 2.78,191.61 3.36,192.58 4.32,193.18 5.68,193.39"/>
    </edge>
    <edge id=":4649494100_4" function="internal">
        <lane id=":4649494100_4_0" index="0" allow="pedestrian delivery bicycle" speed="5.56" length="9.40" shape="2.61,190.25 2.49,199.65"/>
    </edge>
    <edge id=":4649494100_5" function="internal">
        <lane id=":4649494100_5_0" index="0" allow="pedestrian delivery bicycle" speed="3.65" length="4.67" shape="2.61,190.25 1.79,191.44 0.99,191.83 0.19,191.42 -0.59,190.21"/>
    </edge>
    <edge id=":4649494100_6" function="internal">
        <lane id=":4649494100_6_0" index="0" allow="pedestrian delivery bicycle" speed="5.56" length="9.40" shape="-0.71,199.61 -0.59,190.21"/>
    </edge>
    <edge id=":4649494100_7" function="internal">
        <lane id=":4649494100_7_0" index="0" allow="pedestrian delivery bicycle" speed="5.56" length="10.18" shape="-0.71,199.61 -0.28,196.85 0.93,194.90 2.91,193.74 5.68,193.39"/>
    </edge>
    <edge id=":4649494100_8" function="internal">
        <lane id=":4649494100_8_0" index="0" allow="pedestrian delivery bicycle" speed="3.65" length="4.67" shape="-0.71,199.61 0.11,198.42 0.91,198.03 1.71,198.44 2.49,199.65"/>
    </edge>
    <edge id=":4649494101_0" function="internal">
        <lane id=":4649494101_0_0" index="0" allow="pedestrian delivery bicycle" speed="5.56" length="9.40" shape="91.85,191.64 91.60,201.04"/>
    </edge>
    <edge id=":4649494101_1" function="internal">
        <lane id=":4649494101_1_0" index="0" allow="pedestrian delivery bicycle" speed="5.56" length="10.17" shape="91.85,191.64 91.38,194.37 90.15,196.30 88.14,197.44 85.36,197.79"/>
    </edge>
    <edge id=":4649494101_2" function="internal">
        <lane id=":4649494101_2_0" index="0" allow="pedestrian delivery bicycle" speed="3.65" length="4.67" shape="91.85,191.64 91.02,192.82 90.21,193.20 89.42,192.78 88.65,191.56"/>
    </edge>
    <edge id=":4649494101_3" function="internal">
        <lane id=":4649494101_3_0" index="0" allow="pedestrian delivery bicycle" speed="5.08" length="5.05" shape="85.41,194.59 86.80,194.42 87.80,193.85 88.42,192.90 88.65,191.56"/>
    </edge>
    <edge id=":4649494101_4" function="internal">
        <lane id=":4649494101_4_0" index="0" allow="pedestrian delivery bicycle" speed="5.56" length="10.22" shape="85.41,194.59 88.18,195.03 90.14,196.25 91.28,198.25 91.60,201.04"/>
    </edge>
    <edge id=":4649494101_5" function="internal">
        <lane id=":4649494101_5_0" index="0" allow="pedestrian delivery bicycle" speed="3.65" length="4.67" shape="85.41,194.59 86.60,195.41 86.99,196.21 86.58,197.01 85.36,197.79"/>
    </edge>
    <edge id=":4649494101_6" function="internal">
        <lane id=":4649494101_6_0" index="0" allow="pedestrian delivery bicycle" speed="5.03" length="5.01" shape="88.40,200.95 88.24,199.59 87.68,198.60 86.72,198.00 85.36,197.79"/>
    </edge>
    <edge id=":4649494101_7" function="internal">